$# LS-DYNA Keyword file created by LS-PrePost 4.2 (Beta) - 23Jun2014(09:00)
$# Created on Jun-11-2018 (09:13:10)
$$ HM_OUTPUT_DECK created 18:05:53 06-11-2018 by HyperMesh Version 13.0.110.31
$$ Ls-dyna Input Deck Generated by HyperMesh Version  : 13.0.110.31
$$ Generated using HyperMesh-Ls-dyna 971_R6.1 Template Version : 13.0.110
*KEYWORD
*TITLE
LS-DYNA keyword deck by LS-PrePost                                              
*CONTROL_TERMINATION
$$  ENDTIM    ENDCYC     DTMIN    ENDENG    ENDMAS     NOSOL
      15.0         0       0.0       0.0100000000.          
*NODE
     124             0.0 1.530808000E-15            25.0     0.0     0.0
     125             0.0        4.877258       25.480368     0.0     0.0
     126             0.0        9.567086       26.903011     0.0     0.0
     127             0.0       13.889256       29.213259     0.0     0.0
     128             0.0        17.67767        32.32233     0.0     0.0
     129             0.0       20.786741       36.110744     0.0     0.0
     130             0.0       23.096989       40.432915     0.0     0.0
     131             0.0       24.519632       45.122742     0.0     0.0
     132             0.0            25.0            50.0     0.0     0.0
     133             0.0       24.519632       54.877258     0.0     0.0
     134             0.0       23.096989       59.567085     0.0     0.0
     135             0.0       20.786741       63.889256     0.0     0.0
     136             0.0        17.67767       67.677673     0.0     0.0
     137             0.0       13.889256       70.786743     0.0     0.0
     138             0.0        9.567086       73.096985     0.0     0.0
     139             0.0        4.877258        74.51963     0.0     0.0
     140 3.749400000E-31 1.530808000E-15            75.0     0.0     0.0
     141       -12.81653      -14.718937       34.376637     0.0     0.0
     142       -15.34917      -12.094504       34.407505     0.0     0.0
     143      -14.318786      -16.480633       37.819641     0.0     0.0
$ ... 352 like lines cut
$#                                                                         title
$#     pid     secid       mid     eosid      hgid      grav    adpopt      tmid
$#     mid        ro         e        pr        da        db  not used        
*MAT_ELASTIC_TITLE
Elastic                                                                         
         14.0000E-05     150.0      0.34       0.0       0.0       0.0
*PART
$HWCOLOR COMPS       2      60
Ball                                                                            
         2         1         1         0         0         0         0         0
*SECTION_SHELL_TITLE
1.5                                                                             
         1        16     0.833         7       1.0       0.0         0         1
       1.5       1.5       1.5       1.5       0.0       0.0       0.0         0
*INITIAL_VELOCITY_GENERATION
$HMNAME LOADCOLS       1Velocity generation                                                     
$HWCOLOR LOADCOLS       1      11
         2         2       0.0       0.0       0.0     -20.0         0         0
       0.0       0.0       0.0       0.0       0.0       0.0         0         0
$$ Base Accelerations and Angular Velocities
*LOAD_BODY_Z
$HMNAME LOADCOLS       1LoadCol_1                                                               
$HWCOLOR LOADCOLS       1       3
         1       1.0         0                                       0
*RIGIDWALL_PLANAR_ID
$HWCOLOR GROUPS       2      11
         2Rigid wall                                                            
         0                                                            
-0.24423550.1417196619.9677448-0.24423550.1417196620.9677448          
*ELEMENT_SHELL
     102       2     141     142     146     146
     205       2     263     235     231     231
     211       2     270     243     232     232
     240       2     263     277     292     292
     241       2     270     274     294     294
     244       2     271     269     302     302
     291       2     336     326     311     311
     332       2     336     370     376     376
     336       2     369     372     348     348
     359       2     394     389     375     375
     365       2     369     400     408     408
     386       2     394     415     426     426
     468       2     490     482     484     484
     475       2     490     494     493     493
*ELEMENT_SHELL
     101       2     142     141     143     144
     103       2     141     147     145     143
     104       2     142     144     149     148
     105       2     141     146     152     147
     106       2     144     143     150     151
     107       2     146     142     148     153
     108       2     143     145     154     150
     109       2     144     151     157     149
     110       2     147     155     156     145
     111       2     146     153     159     152
     112       2     148     149     160     158
     113       2     147     152     161     155
     114       2     145     156     163     154
     115       2     153     148     158     162
     116       2     151     150     164     165
     117       2     150     154     166     164
     118       2     149     157     167     160
     119       2     153     162     170     159
     120       2     152     159     172     161
     121       2     151     165     173     157
$ ... 342 like lines cut
*DEFINE_CURVE_TITLE
$HMNAME CURVES       1Gravity                                                                 
$HWCOLOR CURVES       1       3
$HMCURVE     2    2 LoadCurve1                                                                      
Gravity                                                               
         1         0       1.0       1.0       0.0       0.0         0
                 0.0                 0.0
                 1.0                9.81
                15.0                9.81
*END
